examples/test_perturbation_outputs/pert_min_loss/pglib_opf_case30_ieee.m
%% MATPOWER Case Format : Version 2
function mpc = pglib_opf_case30_ieee
mpc.version = '2';

%%-----  Power Flow Data  -----%%
%% system MVA base
mpc.baseMVA = 100.0;
%% bus data
%    bus_i    type    Pd    Qd    Gs    Bs    area    Vm    Va    baseKV    zone    Vmax    Vmin
mpc.bus = [
	1	3	0.0	0.0	0.0	0.0	1	1.0	0.0	132.0	1	1.06	0.94				
	2	2	21.7	12.7	0.0	0.0	1	1.0	0.0	132.0	1	1.06	0.94				
	3	1	2.4	1.2	0.0	0.0	1	1.0	0.0	132.0	1	1.06	0.94				
	4	1	7.6	1.6	0.0	0.0	1	1.0	0.0	132.0	1	1.06	0.94				
	5	2	94.2	19.0	0.0	0.0	1	1.0	0.0	132.0	1	1.06	0.94				
	6	1	0.0	0.0	0.0	0.0	1	1.0	0.0	132.0	1	1.06	0.94				
	7	1	22.8	10.9	0.0	0.0	1	1.0	0.0	132.0	1	1.06	0.94				
	8	2	30.0	30.0	0.0	0.0	1	1.0	0.0	132.0	1	1.06	0.94				
	9	1	0.0	0.0	0.0	0.0	1	1.0	0.0	1.0	1	1.06	0.94				
	10	1	5.8	2.0	0.0	19.0	1	1.0	0.0	33.0	1	1.06	0.94				
	11	2	0.0	0.0	0.0	0.0	1	1.0	0.0	11.0	1	1.06	0.94				
	12	1	11.2	7.5	0.0	0.0	1	1.0	0.0	33.0	1	1.06	0.94				
	13	2	0.0	0.0	0.0	0.0	1	1.0	0.0	11.0	1	1.06	0.94				
	14	1	6.2	1.6	0.0	0.0	1	1.0	0.0	33.0	1	1.06	0.94				
	15	1	8.2	2.5	0.0	0.0	1	1.0	0.0	33.0	1	1.06	0.94				
	16	1	3.5000000000000004	1.8000000000000003	0.0	0.0	1	1.0	0.0	33.0	1	1.06	0.94				
	17	1	9.0	5.8	0.0	0.0	1	1.0	0.0	33.0	1	1.06	0.94				
	18	1	3.2	0.9000000000000001	0.0	0.0	1	1.0	0.0	33.0	1	1.06	0.94				
	19	1	9.5	3.4000000000000004	0.0	0.0	1	1.0	0.0	33.0	1	1.06	0.94				
	20	1	2.2	0.7	0.0	0.0	1	1.0	0.0	33.0	1	1.06	0.94				
	21	1	17.5	11.2	0.0	0.0	1	1.0	0.0	33.0	1	1.06	0.94				
	22	1	0.0	0.0	0.0	0.0	1	1.0	0.0	33.0	1	1.06	0.94				
	23	1	3.2	1.6	0.0	0.0	1	1.0	0.0	33.0	1	1.06	0.94				
	24	1	8.7	6.7	0.0	4.3	1	1.0	0.0	33.0	1	1.06	0.94				
	25	1	0.0	0.0	0.0	0.0	1	1.0	0.0	33.0	1	1.06	0.94				
	26	1	3.5000000000000004	2.3	0.0	0.0	1	1.0	0.0	33.0	1	1.06	0.94				
	27	1	0.0	0.0	0.0	0.0	1	1.0	0.0	33.0	1	1.06	0.94				
	28	1	0.0	0.0	0.0	0.0	1	1.0	0.0	132.0	1	1.06	0.94				
	29	1	2.4	0.9000000000000001	0.0	0.0	1	1.0	0.0	33.0	1	1.06	0.94				
	30	1	10.6	1.9	0.0	0.0	1	1.0	0.0	33.0	1	1.06	0.94				
];

%% generator data
%    bus    Pg    Qg    Qmax    Qmin    Vg    mBase    status    Pmax    Pmin    Pc1    Pc2    Qc1min    Qc1max    Qc2min    Qc2max    ramp_agc    ramp_10    ramp_30    ramp_q    apf
mpc.gen = [
	1	135.5	5.0	10.0	0.0	1.0	100.0	1	271.0	0.0															
	2	46.0	3.0	46.0	-40.0	1.0	100.0	1	92.0	0.0															
	5	0.0	0.0	40.0	-40.0	1.0	100.0	1	0.0	0.0															
	8	0.0	15.0	40.0	-10.0	1.0	100.0	1	0.0	0.0															
	11	0.0	9.0	24.0	-6.0	1.0	100.0	1	0.0	0.0															
	13	0.0	9.0	24.0	-6.0	1.0	100.0	1	0.0	0.0															
];

%% branch data
%    f_bus    t_bus    r    x    b    rateA    rateB    rateC    ratio    angle    status    angmin    angmax
mpc.branch = [
	1	2	0.019174099221787463	0.05742243256836355	0.21835176700499542	138.0	138.0	138.0	0	0	1	-29.999999999999996	29.999999999999996								
	1	3	0.04560070511014363	0.16666452386759564	0.06184766002973916	152.0	152.0	152.0	0	0	1	-29.999999999999996	29.999999999999996								
	2	4	0.05450083218150541	0.16608411475933407	0.01099222407692384	139.0	139.0	139.0	0	0	1	-29.999999999999996	29.999999999999996								
	3	4	0.013200107204061961	0.03790030780468881	0.01820610977928967	135.0	135.0	135.0	0	0	1	-29.999999999999996	29.999999999999996								
	2	5	0.048413697197551946	0.20339907230796628	0.04079066337437983	144.0	144.0	144.0	0	0	1	-29.999999999999996	29.999999999999996								
	2	6	0.058039797749856126	0.17611732078411418	0.011428832739828667	139.0	139.0	139.0	0	0	1	-29.999999999999996	29.999999999999996								
	4	6	0.01194980962921099	0.04157328728201391	0.034749444911376284	148.0	148.0	148.0	0	0	1	-29.999999999999996	29.999999999999996								
	5	7	0.046429451093476945	0.11708296362121248	0.07113368615928292	127.0	127.0	127.0	0	0	1	-29.999999999999996	29.999999999999996								
	6	7	0.026733272429238925	0.0821021850113057	0.0018047726484052415	140.0	140.0	140.0	0	0	1	-29.999999999999996	29.999999999999996								
	6	8	0.012015017145472751	0.04205256000868799	0.0018071305430898384	148.0	148.0	148.0	0	0	1	-29.999999999999996	29.999999999999996								
	6	9	0.0023991380212435294	0.212399886451572	0.002009421339015505	142.0	142.0	142.0	0.978	0.0	1	-29.999999999999996	29.999999999999996								
	6	10	0.01623002415934253	0.5522382332399124	0.021764902744718793	53.0	53.0	53.0	0.969	0.0	1	-29.999999999999996	29.999999999999996								
	9	11	0.0023666464359559853	0.2109568973786488	0.0018047837379268452	142.0	142.0	142.0	1.0	0.0	1	-29.999999999999996	29.999999999999996								
	9	10	0.0006429951317480101	0.10996406468906691	0.0018047668924340103	267.0	267.0	267.0	1.0	0.0	1	-29.999999999999996	29.999999999999996								
	4	12	0.0034428839411658908	0.2544343843560999	0.053611322445322136	114.99999999999999	114.99999999999999	114.99999999999999	0.932	0.0	1	-29.999999999999996	29.999999999999996								
	12	13	0.0010436491542988094	0.14009401391636167	0.01157230029681315	210.0	210.0	210.0	1.0	0.0	1	-29.999999999999996	29.999999999999996								
	12	14	0.1214747836972403	0.2525215038734033	0.009566632473771954	28.999999999999996	28.999999999999996	28.999999999999996	0	0	1	-29.999999999999996	29.999999999999996								
	12	15	0.06608377272130482	0.13017105679864804	0.0018047703909006706	28.999999999999996	28.999999999999996	28.999999999999996	0	0	1	-29.999999999999996	29.999999999999996								
	12	16	0.09499900405933495	0.19974922858740116	0.027437142445275117	30.0	30.0	30.0	0	0	1	-29.999999999999996	29.999999999999996								
	14	15	0.22033938560969352	0.19910305569369427	0.10547043350318933	20.0	20.0	20.0	0	0	1	-29.999999999999996	29.999999999999996								
	16	17	0.052389099027744454	0.19225999496673474	0.01675478322610361	38.0	38.0	38.0	0	0	1	-29.999999999999996	29.999999999999996								
	15	18	0.1126301396823336	0.2293540122121715	0.03682122922615167	28.999999999999996	28.999999999999996	28.999999999999996	0	0	1	-29.999999999999996	29.999999999999996								
	18	19	0.06480598138082197	0.13103181210633244	0.06884991289925774	28.999999999999996	28.999999999999996	28.999999999999996	0	0	1	-29.999999999999996	29.999999999999996								
	19	20	0.03402966786834386	0.06805933573454459	0.034384501745301936	28.999999999999996	28.999999999999996	28.999999999999996	0	0	1	-29.999999999999996	29.999999999999996								
	10	20	0.09321575936346366	0.20814202663346545	0.07776951045538459	30.0	30.0	30.0	0	0	1	-29.999999999999996	29.999999999999996								
	10	17	0.032390312328122554	0.08447473430671512	0.0018048241781985573	33.0	33.0	33.0	0	0	1	-29.999999999999996	29.999999999999996								
	10	21	0.034620079818395426	0.07451275799661933	0.0018055193293155794	30.0	30.0	30.0	0	0	1	-29.999999999999996	29.999999999999996								
	10	22	0.07275933315206108	0.15002233888825528	0.0018047812348235461	28.999999999999996	28.999999999999996	28.999999999999996	0	0	1	-29.999999999999996	29.999999999999996								
	21	22	0.011603610779407478	0.023607346068376913	0.001804711797553639	28.999999999999996	28.999999999999996	28.999999999999996	0	0	1	-29.999999999999996	29.999999999999996								
	15	23	0.10030346333170433	0.20261299586261639	0.0018047126954373134	28.999999999999996	28.999999999999996	28.999999999999996	0	0	1	-29.999999999999996	29.999999999999996								
	22	24	0.11597355672407657	0.18051536214222097	0.0018047036322303073	26.0	26.0	26.0	0	0	1	-29.999999999999996	29.999999999999996								
	23	24	0.13397538715816812	0.27404056450626385	0.03942187733217464	28.999999999999996	28.999999999999996	28.999999999999996	0	0	1	-29.999999999999996	29.999999999999996								
	24	25	0.18334575376783607	0.32019852582481245	0.15151999053327098	27.0	27.0	27.0	0	0	1	-29.999999999999996	29.999999999999996								
	25	26	0.24941020839598319	0.3725466947331807	0.001804768239608841	25.0	25.0	25.0	0	0	1	-29.999999999999996	29.999999999999996								
	25	27	0.10887592111879987	0.20789025364606525	0.07777209623532266	28.000000000000004	28.000000000000004	28.000000000000004	0	0	1	-29.999999999999996	29.999999999999996								
	28	27	0.008387975716808842	0.39708737249736303	0.001804727730833405	75.0	75.0	75.0	0.968	0.0	1	-29.999999999999996	29.999999999999996								
	27	29	0.21496608340500584	0.4061665801264102	0.06575363712375037	28.000000000000004	28.000000000000004	28.000000000000004	0	0	1	-29.999999999999996	29.999999999999996								
	27	30	0.27772021031673605	0.5227419437910616	0.0018048288924882893	28.000000000000004	28.000000000000004	28.000000000000004	0	0	1	-29.999999999999996	29.999999999999996								
	29	30	0.23549183443026359	0.44497060626211343	0.0022692703967329086	28.000000000000004	28.000000000000004	28.000000000000004	0	0	1	-29.999999999999996	29.999999999999996								
	8	28	0.06129793323690397	0.19276079623569664	0.013539337544158854	140.0	140.0	140.0	0	0	1	-29.999999999999996	29.999999999999996								
	6	28	0.01694116599197885	0.060045907859417456	0.12024243192293894	149.0	149.0	149.0	0	0	1	-29.999999999999996	29.999999999999996								
];

%%-----  OPF Data  -----%%
%% cost data
%    1    startup    shutdown    n    x1    y1    ...    xn    yn
%    2    startup    shutdown    n    c(n-1)    ...    c0
mpc.gencost = [
	2	0.0	0.0	2	18.421528	0.0
	2	0.0	0.0	2	52.182254	0.0
	2	0.0	0.0	2	0.0	0.0
	2	0.0	0.0	2	0.0	0.0
	2	0.0	0.0	2	0.0	0.0
	2	0.0	0.0	2	0.0	0.0
];

